55

N         -6.20150        2.51990       -0.02189
C         -4.84417        2.05894        0.30193
C         -3.84979        3.19135        0.09252
N         -2.53836        3.02356        0.42716
C         -1.54803        4.07859        0.23745
H         -2.25395        2.11643        0.82397
C         -0.14461        3.64582        0.62184
N          0.88783        4.52476        0.46829
C          2.27397        4.21332        0.81313
H          0.66112        5.46992        0.11933
C          3.08861        5.48762        0.73193
O          3.67516        6.00622        1.83276
H          3.60341        5.58240        2.69922
O          3.20599        6.07096       -0.33497
O          0.05750        2.52906        1.07858
O         -4.23254        4.25760       -0.37184
H         -6.45395        3.31456        0.61043
H         -6.90463        1.77002        0.15325
O         -1.89281        5.17339        1.01534
H         -1.51981        4.33461       -0.84548
C         -4.45547        0.85323       -0.58861
H         -4.80046        1.76627        1.37526
C         -5.24592       -0.40372       -0.33419
H         -3.39293        0.58152       -0.41879
H         -4.56992        1.14635       -1.65495
N         -5.06079       -1.53581       -1.03939
N         -6.19197       -0.54678        0.61885
C         -6.61623       -1.81950        0.49374
C         -5.92054       -2.42930       -0.52627
H         -7.38191       -2.27288        1.10863
H         -4.38869       -1.69085       -1.82341
H         -6.03126       -3.44982       -0.86825
C          2.83651        3.11021       -0.13001
H          2.29208        3.84375        1.86222
C          4.21085        2.49378        0.25523
H          2.86190        3.48736       -1.17645
H          2.12212        2.26338       -0.11290
C          5.39099        3.47334        0.16483
H          5.46904        3.90204       -0.85729
H          6.33995        2.94633        0.40226
H          5.30736        4.28753        0.90438
C          4.49884        1.29715       -0.66619
H          4.15050        2.10703        1.29656
H          3.69191        0.53801       -0.58197
H          5.45349        0.80669       -0.37832
H          4.57098        1.62454       -1.72600
C         -2.16041        6.42574        0.55905
C         -2.51690        7.48758        1.57414
C         -2.80793        8.87573        1.04026
H         -1.67186        7.56850        2.29028
H         -3.41502        7.14001        2.12731
O         -3.13029        9.86391        1.90098
H         -3.18047        9.70898        2.85474
O         -2.10853        6.67678       -0.63717
O         -2.75895        9.12855       -0.15317
